Circuit: * Z:\home\nailsonchagas\Downloads\EEG\canal\canal.asc

WARNING: Node U1:N1980383 is floating.
WARNING: Node U1:N1980745 is floating.

WARNING: Less than two connections to node N003.  This node is used by V1.
Direct Newton iteration failed to find .op point.  (Use ".option noopiter" to skip.)
Starting Gmin stepping
Gmin = 10
Gmin = 1.07374
vernier = 0.5
vernier = 0.25
vernier = 0.125
vernier = 0.0625
Gmin = 1.02494
vernier = 0.03125
vernier = 0.015625
vernier = 0.0078125
Gmin = 1.01302
vernier = 0.00390625
vernier = 0.00195313
Gmin = 1.00711
vernier = 0.00260417
vernier = 0.00130208
Gmin = 1.004
vernier = 0.000651042
vernier = 0.000868055
vernier = 0.000434028
Gmin = 1.00329
vernier = 0.000578703
vernier = 0.000434027
Gmin = 1.00242
Gmin = 0
Gmin stepping failed

Starting source stepping with srcstepmethod=0
Source Step = 3.0303%
vernier = 0.25
Source Step = 0.0828598%
Source Step = 0.201231%
Source Step = 0.319602%
Source Step = 0.437973%
Source Step = 0.556345%
vernier = 0.00585938
Source Step = 0.710227%
Source Step = 0.887784%
Source Step = 1.06534%
Source Step = 1.2429%
Source Step = 1.42045%
vernier = 0.00878906
Source Step = 1.6424%
Source Step = 1.90874%
Source Step = 2.17507%
Source Step = 2.44141%
Source Step = 2.70774%
vernier = 0.0131836
Source Step = 3.02734%
Source Step = 3.42685%
Source Step = 3.82635%
Source Step = 4.22585%
Source Step = 4.62536%
vernier = 0.0197754
Source Step = 5.08478%
Source Step = 5.68404%
Source Step = 6.28329%
Source Step = 6.88255%
Source Step = 7.4818%
vernier = 0.0296631
Source Step = 8.14098%
Source Step = 9.03986%
Source Step = 9.93874%
Source Step = 10.8376%
Source Step = 11.7365%
vernier = 0.0444946
Source Step = 12.6803%
Source Step = 14.0287%
Source Step = 15.377%
Source Step = 16.7253%
Source Step = 18.0736%
Source Step = 19.4219%
vernier = 0.0667419
Source Step = 21.4444%
Source Step = 23.4669%
Source Step = 25.4894%
Source Step = 27.5119%
Source Step = 29.5344%
vernier = 0.100113
Source Step = 32.467%
Source Step = 35.5007%
Source Step = 38.0035%
vernier = 0.00625706
Source Step = 37.9703%
Source Step = 38.0177%
Source Step = 38.0651%
Source Step = 38.1125%
Source Step = 38.1599%
vernier = 0.0023464
Source Step = 38.2168%
Source Step = 38.2879%
Source Step = 38.359%
Source Step = 38.4301%
Source Step = 38.5012%
vernier = 0.00351959
Source Step = 38.583%
Source Step = 38.6896%
Source Step = 38.7963%
Source Step = 38.903%
Source Step = 39.0096%
vernier = 0.00527939
Source Step = 39.1269%
Source Step = 39.2869%
Source Step = 39.4469%
Source Step = 39.6069%
Source Step = 39.7669%
vernier = 0.00791909
Source Step = 39.9348%
Source Step = 40.1748%
Source Step = 40.4148%
Source Step = 40.6548%
Source Step = 40.8947%
Source Step = 41.1347%
vernier = 0.0118786
Source Step = 41.4947%
Source Step = 41.8546%
Source Step = 42.2146%
Source Step = 42.5745%
Source Step = 42.9345%
vernier = 0.0178179
Source Step = 43.4564%
Source Step = 43.9964%
Source Step = 44.5363%
Source Step = 45.0762%
Source Step = 45.6162%
vernier = 0.0267269
Source Step = 46.3721%
Source Step = 47.182%
Source Step = 47.9919%
Source Step = 48.8018%
Source Step = 49.6117%
vernier = 0.0400904
Source Step = 50.7051%
Source Step = 51.92%
Source Step = 53.1348%
Source Step = 54.3497%
Source Step = 55.5645%
vernier = 0.0601356
Source Step = 57.1439%
Source Step = 58.9661%
Source Step = 60.7884%
Source Step = 62.6107%
Source Step = 64.433%
vernier = 0.0902034
Source Step = 66.7109%
Source Step = 69.4443%
Source Step = 72.1778%
Source Step = 74.9112%
Source Step = 77.6446%
vernier = 0.135305
Source Step = 80.9247%
Source Step = 85.0249%
Source Step = 89.125%
Source Step = 92.0208%
vernier = 0.00211414
Starting source stepping with srcstepmethod=1
Source Step = 3.0303%
vernier = 0.25
Source Step = 7.57576%
Source Step = 15.1515%
Source Step = 22.7273%
Source Step = 30.303%
Source Step = 37.8788%
vernier = 0.375
Source Step = 48.8636%
Source Step = 60.2273%
Source Step = 71.5909%
Source Step = 82.9545%
Source Step = 94.3182%
vernier = 0.5625
Source Step = 100%
Source Step = 99.0266%
Source stepping failed

Pseudo Transient succeeded in finding the operating point at 23.5026 s.

Date: Thu Jun 12 16:54:59 2025
Total elapsed time: 8.119 seconds.

tnom = 27
temp = 27
method = trap
totiter = 19670
traniter = 0
tranpoints = 0
accept = 0
rejected = 30
matrix size = 422
fillins = 1264
solver = Normal
Matrix Compiler1:    6711 opcodes  21.3/[9.7]/10.3
Matrix Compiler2: 58.89 KB object code size  6.9/8.5/[3.9]

