Circuit: * Z:\home\nailsonchagas\Downloads\EEG\canal\cana_tl.asc

WARNING: Node U1:N1980383 is floating.
WARNING: Node U1:N1980745 is floating.

Instance "m:u4:6": Length shorter than recommended for a level 2 MOSFET.
Instance "m:u4:5": Length shorter than recommended for a level 2 MOSFET.
Instance "m:u4:4": Length shorter than recommended for a level 2 MOSFET.
Instance "m:u4:3": Length shorter than recommended for a level 2 MOSFET.
Instance "m:u4:2": Length shorter than recommended for a level 2 MOSFET.
Instance "m:u4:1": Length shorter than recommended for a level 2 MOSFET.
Instance "m:u3:6": Length shorter than recommended for a level 2 MOSFET.
Instance "m:u3:5": Length shorter than recommended for a level 2 MOSFET.
Instance "m:u3:4": Length shorter than recommended for a level 2 MOSFET.
Instance "m:u3:3": Length shorter than recommended for a level 2 MOSFET.
Instance "m:u3:2": Length shorter than recommended for a level 2 MOSFET.
Instance "m:u3:1": Length shorter than recommended for a level 2 MOSFET.
Instance "m:u2:6": Length shorter than recommended for a level 2 MOSFET.
Instance "m:u2:5": Length shorter than recommended for a level 2 MOSFET.
Instance "m:u2:4": Length shorter than recommended for a level 2 MOSFET.
Instance "m:u2:3": Length shorter than recommended for a level 2 MOSFET.
Instance "m:u2:2": Length shorter than recommended for a level 2 MOSFET.
Instance "m:u2:1": Length shorter than recommended for a level 2 MOSFET.
Direct Newton iteration failed to find .op point.  (Use ".option noopiter" to skip.)
Starting Gmin stepping
Gmin = 10
Gmin = 1.07374
vernier = 0.5
vernier = 0.25
vernier = 0.125
vernier = 0.0625
Gmin = 1.02494
vernier = 0.03125
vernier = 0.015625
vernier = 0.0078125
Gmin = 1.01302
vernier = 0.00390625
vernier = 0.00195313
Gmin = 1.00711
vernier = 0.00260417
vernier = 0.00130208
Gmin = 1.004
vernier = 0.000651042
vernier = 0.000868055
vernier = 0.000434028
Gmin = 1.00329
vernier = 0.000578703
vernier = 0.000434027
Gmin = 1.00242
Gmin = 0
Gmin stepping failed

Starting source stepping with srcstepmethod=0
Source Step = 3.0303%
vernier = 0.25
Source Step = 0.0828598%
Source Step = 0.201231%
Source Step = 0.319602%
Source Step = 0.437973%
Source Step = 0.556345%
vernier = 0.00585938
Source Step = 0.710227%
Source Step = 0.887784%
Source Step = 1.06534%
Source Step = 1.2429%
Source Step = 1.42045%
vernier = 0.00878906
Source Step = 1.6424%
Source Step = 1.90874%
Source Step = 2.17507%
Source Step = 2.44141%
Source Step = 2.70774%
vernier = 0.0131836
Source Step = 3.02734%
Source Step = 3.42685%
Source Step = 3.82635%
Source Step = 4.22585%
Source Step = 4.62536%
vernier = 0.0197754
Source Step = 5.08478%
Source Step = 5.68404%
Source Step = 6.28329%
Source Step = 6.88255%
Source Step = 7.4818%
vernier = 0.0296631
Source Step = 8.14098%
Source Step = 9.03986%
Source Step = 9.93874%
Source Step = 10.8376%
Source Step = 11.7365%
vernier = 0.0444946
Source Step = 12.6803%
Source Step = 14.0287%
Source Step = 15.377%
Source Step = 16.7253%
Source Step = 18.0736%
Source Step = 19.4219%
vernier = 0.0667419
Source Step = 21.4444%
Source Step = 23.4669%
Source Step = 25.4894%
Source Step = 27.5119%
Source Step = 29.5344%
vernier = 0.100113
Source Step = 32.467%
Source Step = 32.7988%
Source Step = 32.8462%
Source Step = 32.8936%
Source Step = 32.941%
Source Step = 32.9884%
vernier = 0.0023464
Source Step = 33.0429%
Source Step = 33.114%
Source Step = 33.1851%
Source Step = 33.2562%
Source Step = 33.3273%
vernier = 0.00351959
Source Step = 33.4055%
Source Step = 33.5122%
Source Step = 33.6188%
Source Step = 33.7255%
Source Step = 33.8321%
vernier = 0.00527939
Source Step = 33.9441%
Source Step = 34.1041%
Source Step = 34.2641%
Source Step = 34.4241%
Source Step = 34.584%
Source Step = 34.744%
vernier = 0.00791909
Source Step = 34.984%
Source Step = 35.224%
Source Step = 35.4639%
Source Step = 35.7039%
Source Step = 35.9439%
vernier = 0.0118786
Source Step = 36.2919%
Source Step = 36.6518%
Source Step = 37.0118%
Source Step = 37.3717%
Source Step = 37.7317%
vernier = 0.0178179
Source Step = 38.2356%
Source Step = 38.7756%
Source Step = 39.3155%
Source Step = 39.8554%
Source Step = 40.3954%
vernier = 0.0267269
Source Step = 41.1243%
Source Step = 41.9342%
Source Step = 42.7441%
Source Step = 43.554%
Source Step = 44.3639%
vernier = 0.0400904
Source Step = 45.4168%
Source Step = 46.6317%
Source Step = 47.8465%
Source Step = 48.4767%
Source Step = 48.5527%
Source Step = 48.6286%
Source Step = 48.7045%
Source Step = 48.7804%
Source Step = 48.8564%
vernier = 0.00375847
Source Step = 48.9627%
Source Step = 49.0766%
Source Step = 49.1905%
Source Step = 49.3044%
Source Step = 49.4182%
vernier = 0.00563771
Source Step = 49.572%
Source Step = 49.7428%
Source Step = 49.9137%
Source Step = 50.0845%
Source Step = 50.2554%
vernier = 0.00845657
Source Step = 50.4775%
Source Step = 50.7337%
Source Step = 50.99%
Source Step = 51.2462%
Source Step = 51.5025%
vernier = 0.0126848
Source Step = 51.8228%
Source Step = 52.2072%
Source Step = 52.5916%
Source Step = 52.976%
Source Step = 53.3604%
vernier = 0.0190273
Source Step = 53.8216%
Source Step = 54.3982%
Source Step = 54.9748%
Source Step = 55.5514%
Source Step = 56.128%
vernier = 0.0285409
Source Step = 56.791%
Source Step = 57.6559%
Source Step = 58.5208%
Source Step = 59.3857%
Source Step = 60.2505%
vernier = 0.0428114
Source Step = 61.2019%
Source Step = 62.4992%
Source Step = 63.7965%
Source Step = 65.0939%
Source Step = 66.3912%
vernier = 0.064217
Source Step = 67.7533%
Source Step = 69.6993%
Source Step = 71.6453%
Source Step = 73.5913%
Source Step = 75.5372%
Source Step = 77.4832%
vernier = 0.0963256
Source Step = 80.4022%
Source Step = 83.3211%
Source Step = 86.2401%
Source Step = 89.159%
Source Step = 92.078%
vernier = 0.144488
Source Step = 93.7039%
Starting source stepping with srcstepmethod=1
Source Step = 3.0303%
vernier = 0.25
Source Step = 7.57576%
Source Step = 15.1515%
Source Step = 22.7273%
Source Step = 30.303%
Source Step = 37.8788%
vernier = 0.375
Source Step = 48.8636%
Source Step = 60.2273%
Source Step = 71.5909%
Source Step = 82.9545%
Source Step = 94.3182%
vernier = 0.09375
Source stepping failed

Pseudo transient terminated at 101.335 s, solution accepted ready or not!

Date: Mon May 12 20:35:27 2025
Total elapsed time: 9.651 seconds.

tnom = 27
temp = 27
method = trap
totiter = 18059
traniter = 0
tranpoints = 0
accept = 0
rejected = 24
matrix size = 524
fillins = 1233
solver = Normal
Matrix Compiler1:    6060 opcodes  22.2/[9.5]/10.4
Matrix Compiler2: 67.35 KB object code size  9.9/10.4/[4.5]

