Circuit: * Z:\mnt\9a3f66c9-6d6d-4e50-b992-ca8f034e1022\Download\EEG\canal\canal.asc

WARNING: Node U1:N1980383 is floating.
WARNING: Node U1:N1980745 is floating.

Direct Newton iteration failed to find .op point.  (Use ".option noopiter" to skip.)
Starting Gmin stepping
Increasing initial diagonal Gmin to 100
Gmin = 100
vernier = 0.5
vernier = 0.25
vernier = 0.125
Gmin = 48.1882
vernier = 0.0625
vernier = 0.03125
vernier = 0.015625
vernier = 0.0078125
Gmin = 46.3658
vernier = 0.00390625
vernier = 0.00195313
vernier = 0.000976563
vernier = 0.000488281
Gmin = 46.3149
Gmin = 0
Gmin stepping failed

Starting source stepping with srcstepmethod=0
Source Step = 3.0303%
vernier = 0.25
Source Step = 1.70455%
Source Step = 3.59848%
Source Step = 5.49242%
Source Step = 7.38636%
Source Step = 9.2803%
vernier = 0.09375
Source Step = 11.9318%
Source Step = 14.7727%
Source Step = 17.6136%
Source Step = 20.4545%
Source Step = 23.2955%
vernier = 0.140625
Source Step = 27.1307%
Source Step = 31.392%
Source Step = 35.6534%
Source Step = 37.7974%
Source Step = 37.864%
Source Step = 37.9306%
Source Step = 37.9972%
Source Step = 38.0637%
Source Step = 38.1303%
vernier = 0.0032959
Source Step = 38.2169%
Source Step = 38.3168%
Source Step = 38.4166%
Source Step = 38.5165%
Source Step = 38.6164%
vernier = 0.00494385
Source Step = 38.7412%
Source Step = 38.891%
Source Step = 39.0409%
Source Step = 39.1907%
Source Step = 39.3405%
vernier = 0.00741577
Source Step = 39.5203%
Source Step = 39.745%
Source Step = 39.9697%
Source Step = 40.1944%
Source Step = 40.4191%
vernier = 0.0111237
Source Step = 40.6776%
Source Step = 41.0147%
Source Step = 41.3517%
Source Step = 41.6888%
Source Step = 42.0259%
vernier = 0.0166855
Source Step = 42.3967%
Source Step = 42.9023%
Source Step = 43.4079%
Source Step = 43.9135%
Source Step = 44.4192%
vernier = 0.0250282
Source Step = 44.9501%
Source Step = 45.7085%
Source Step = 46.4669%
Source Step = 47.2254%
Source Step = 47.9838%
Source Step = 48.7422%
vernier = 0.0375423
Source Step = 49.8799%
Source Step = 51.0175%
Source Step = 52.1552%
Source Step = 53.2928%
Source Step = 54.4305%
vernier = 0.0563135
Source Step = 56.08%
Source Step = 57.7865%
Source Step = 59.493%
Source Step = 61.1995%
Source Step = 62.9059%
vernier = 0.0844703
Source Step = 65.295%
Source Step = 67.8547%
Source Step = 70.4144%
Source Step = 72.9741%
Source Step = 75.5338%
vernier = 0.126705
Source Step = 78.9894%
Source Step = 82.829%
Source Step = 86.6685%
Source Step = 90.5081%
Source Step = 91.306%
Starting source stepping with srcstepmethod=1
Source Step = 3.0303%
vernier = 0.25
Source Step = 7.57576%
Source Step = 15.1515%
Source Step = 22.7273%
Source Step = 30.303%
Source Step = 37.8788%
vernier = 0.375
Source Step = 48.8636%
Source Step = 60.2273%
Source Step = 71.5909%
Source Step = 82.9545%
Source Step = 94.3182%
vernier = 0.5625
Source Step = 100%
Source Step = 99.0266%
Source stepping failed

Pseudo Transient succeeded in finding the operating point at 26.979 s.

Date: Mon Jul 21 22:33:55 2025
Total elapsed time: 20.326 seconds.

tnom = 27
temp = 27
method = modified trap
totiter = 22915
traniter = 7358
tranpoints = 3542
accept = 2724
rejected = 834
matrix size = 488
fillins = 1402
solver = Normal
Thread vector: 68.3/44.8[3] 17.7/15.0[3] 14.3/10.0[3] 2.0/24.6[1]  2592/500
Matrix Compiler1: 127.93 KB object code size  36.4/17.5/[8.4]
Matrix Compiler2: 68.25 KB object code size  10.4/10.7/[5.9]

