Circuit: * Z:\home\nailsonchagas\Downloads\EEG\canal\canal.asc

WARNING: Node U1:N1980383 is floating.
WARNING: Node U1:N1980745 is floating.

Instance "m:u10:6": Length shorter than recommended for a level 2 MOSFET.
Instance "m:u10:5": Length shorter than recommended for a level 2 MOSFET.
Instance "m:u10:4": Length shorter than recommended for a level 2 MOSFET.
Instance "m:u10:3": Length shorter than recommended for a level 2 MOSFET.
Instance "m:u10:2": Length shorter than recommended for a level 2 MOSFET.
Instance "m:u10:1": Length shorter than recommended for a level 2 MOSFET.
Instance "m:u9:6": Length shorter than recommended for a level 2 MOSFET.
Instance "m:u9:5": Length shorter than recommended for a level 2 MOSFET.
Instance "m:u9:4": Length shorter than recommended for a level 2 MOSFET.
Instance "m:u9:3": Length shorter than recommended for a level 2 MOSFET.
Instance "m:u9:2": Length shorter than recommended for a level 2 MOSFET.
Instance "m:u9:1": Length shorter than recommended for a level 2 MOSFET.
Instance "m:u8:6": Length shorter than recommended for a level 2 MOSFET.
Instance "m:u8:5": Length shorter than recommended for a level 2 MOSFET.
Instance "m:u8:4": Length shorter than recommended for a level 2 MOSFET.
Instance "m:u8:3": Length shorter than recommended for a level 2 MOSFET.
Instance "m:u8:2": Length shorter than recommended for a level 2 MOSFET.
Instance "m:u8:1": Length shorter than recommended for a level 2 MOSFET.
Instance "m:u4:6": Length shorter than recommended for a level 2 MOSFET.
Instance "m:u4:5": Length shorter than recommended for a level 2 MOSFET.
Instance "m:u4:4": Length shorter than recommended for a level 2 MOSFET.
Instance "m:u4:3": Length shorter than recommended for a level 2 MOSFET.
Instance "m:u4:2": Length shorter than recommended for a level 2 MOSFET.
Instance "m:u4:1": Length shorter than recommended for a level 2 MOSFET.
Instance "m:u3:6": Length shorter than recommended for a level 2 MOSFET.
Instance "m:u3:5": Length shorter than recommended for a level 2 MOSFET.
Instance "m:u3:4": Length shorter than recommended for a level 2 MOSFET.
Instance "m:u3:3": Length shorter than recommended for a level 2 MOSFET.
Instance "m:u3:2": Length shorter than recommended for a level 2 MOSFET.
Instance "m:u3:1": Length shorter than recommended for a level 2 MOSFET.
Instance "m:u2:6": Length shorter than recommended for a level 2 MOSFET.
Instance "m:u2:5": Length shorter than recommended for a level 2 MOSFET.
Instance "m:u2:4": Length shorter than recommended for a level 2 MOSFET.
Instance "m:u2:3": Length shorter than recommended for a level 2 MOSFET.
Instance "m:u2:2": Length shorter than recommended for a level 2 MOSFET.
Instance "m:u2:1": Length shorter than recommended for a level 2 MOSFET.
Direct Newton iteration failed to find .op point.  (Use ".option noopiter" to skip.)
Starting Gmin stepping
Gmin = 10
Gmin = 1.07374
vernier = 0.5
vernier = 0.25
vernier = 0.125
vernier = 0.0625
Gmin = 1.02494
vernier = 0.03125
vernier = 0.015625
vernier = 0.0078125
Gmin = 1.01302
vernier = 0.00390625
vernier = 0.00195313
Gmin = 1.00711
vernier = 0.00260417
vernier = 0.00130208
Gmin = 1.004
vernier = 0.000651042
vernier = 0.000868055
vernier = 0.000434028
Gmin = 1.00329
vernier = 0.000578703
vernier = 0.000434027
Gmin = 1.00242
Gmin = 0
Gmin stepping failed

Starting source stepping with srcstepmethod=0
Source Step = 3.0303%
vernier = 0.25
Source Step = 1.70455%
Source Step = 3.59848%
Source Step = 5.49242%
Source Step = 7.38636%
Source Step = 9.2803%
vernier = 0.09375
Source Step = 11.9318%
Source Step = 14.7727%
Source Step = 17.6136%
Source Step = 20.4545%
Source Step = 23.2955%
vernier = 0.140625
Source Step = 27.1307%
Source Step = 29.2747%
Source Step = 29.3413%
Source Step = 29.4078%
Source Step = 29.4744%
Source Step = 29.541%
Source Step = 29.6076%
vernier = 0.0032959
Source Step = 29.6942%
Source Step = 29.794%
Source Step = 29.8939%
Source Step = 29.9938%
Source Step = 30.0937%
vernier = 0.00494385
Source Step = 30.2185%
Source Step = 30.3683%
Source Step = 30.5181%
Source Step = 30.6679%
Source Step = 30.8178%
vernier = 0.00741577
Source Step = 30.9975%
Source Step = 31.2223%
Source Step = 31.447%
Source Step = 31.6717%
Source Step = 31.8964%
vernier = 0.0111237
Source Step = 32.1548%
Source Step = 32.4919%
Source Step = 32.829%
Source Step = 33.1661%
Source Step = 33.5032%
vernier = 0.0166855
Source Step = 33.874%
Source Step = 34.3796%
Source Step = 34.8852%
Source Step = 35.3908%
Source Step = 35.8964%
vernier = 0.0250282
Source Step = 36.4273%
Source Step = 37.1858%
Source Step = 37.9442%
Source Step = 38.7026%
Source Step = 39.4611%
Source Step = 40.2195%
vernier = 0.0375423
Source Step = 41.3571%
Source Step = 42.4948%
Source Step = 43.6324%
Source Step = 44.7701%
Source Step = 45.9077%
vernier = 0.0563135
Source Step = 47.5573%
Source Step = 49.2638%
Source Step = 50.9703%
Source Step = 52.6767%
Source Step = 54.3832%
vernier = 0.0844703
Source Step = 56.7723%
Source Step = 59.332%
Source Step = 61.8917%
Source Step = 64.4514%
Source Step = 67.0111%
vernier = 0.126705
Source Step = 70.4667%
Source Step = 74.3062%
Source Step = 78.1458%
Source Step = 81.9854%
Source Step = 85.8249%
vernier = 0.190058
Source Step = 90.8163%
Source Step = 94.2809%
Starting source stepping with srcstepmethod=1
Source Step = 3.0303%
vernier = 0.25
Source Step = 1.70455%
Source Step = 3.59848%
Source Step = 5.49242%
Source Step = 7.38636%
Source Step = 9.2803%
vernier = 0.09375
Source Step = 11.9318%
Source Step = 14.7727%
Source Step = 17.6136%
Source Step = 20.4545%
Source Step = 23.2955%
vernier = 0.140625
Source Step = 27.1307%
Source Step = 31.392%
Source Step = 35.6534%
Source Step = 39.9148%
Source Step = 44.1761%
vernier = 0.210938
Source Step = 49.7159%
Source Step = 56.108%
Source Step = 62.5%
Source Step = 68.892%
Source Step = 75.2841%
vernier = 0.316406
Source Step = 83.2741%
Source Step = 92.8622%
Source Step = 100%
Source Step = 99.0112%
Source stepping failed

Pseudo transient terminated at 100.013 s, solution accepted ready or not!

Date: Wed May 07 19:01:02 2025
Total elapsed time: 24.227 seconds.

tnom = 27
temp = 27
method = trap
totiter = 95861
traniter = 0
tranpoints = 0
accept = 0
rejected = 1940
matrix size = 690
fillins = 1751
solver = Normal
Matrix Compiler1: 139.36 KB object code size  34.2/15.1/[15.7]
Matrix Compiler2: 92.80 KB object code size  13.6/13.7/[5.9]

