Circuit: * Z:\home\nailsonchagas\Downloads\EEG\canal\Draft1.asc

Direct Newton iteration for .op point succeeded.

Date: Mon Apr 28 17:30:30 2025
Total elapsed time: 0.084 seconds.

tnom = 27
temp = 27
method = trap
totiter = 3
traniter = 0
tranpoints = 0
accept = 0
rejected = 0
matrix size = 10
fillins = 1
solver = Normal
Matrix Compiler1:      25 opcodes
Matrix Compiler2: 794 bytes object code size
