Circuit: * Z:\home\nailsonchagas\Downloads\EEG\canal\fonte.asc

Direct Newton iteration failed to find .op point.  (Use ".option noopiter" to skip.)
Starting Gmin stepping
Gmin = 10
Gmin = 1.07374
vernier = 0.5
vernier = 0.25
vernier = 0.125
vernier = 0.0625
Gmin = 1.1391
vernier = 0.03125
vernier = 0.0416667
vernier = 0.0208333
Gmin = 1.08995
vernier = 0.0277778
Gmin = 1.02411
vernier = 0.037037
vernier = 0.0493827
vernier = 0.0246913
Gmin = 0.951327
vernier = 0.0329218
Gmin = 0.883651
vernier = 0.0438957
vernier = 0.0585276
Gmin = 0.780921
vernier = 0.0780367
vernier = 0.104049
Gmin = 0.641709
vernier = 0.138732
Gmin = 0.471937
vernier = 0.184976
vernier = 0.246634
Gmin = 0.283235
vernier = 0.328846
vernier = 0.438461
Gmin = 0.127046
vernier = 0.584614
Gmin = 0.0369669
vernier = 0.779486
vernier = 1
Gmin = 0.00520291
Gmin = 0.000558658
Gmin = 5.99854e-005
Gmin = 6.44089e-006
Gmin = 6.91585e-007
Gmin = 7.42584e-008
Gmin = 7.97343e-009
Gmin = 8.56141e-010
Gmin = 9.19274e-011
Gmin = 9.87063e-012
Gmin = 1.05985e-012
Gmin = 1.13801e-013
Gmin = 0
Gmin stepping succeeded in finding the operating point.

Changing Tseed to 1e-008

Date: Mon Sep 01 16:59:14 2025
Total elapsed time: 0.198 seconds.

tnom = 27
temp = 27
method = modified trap
totiter = 3645
traniter = 2092
tranpoints = 1042
accept = 1041
rejected = 0
matrix size = 28
fillins = 17
solver = Normal
Matrix Compiler1: 2.67 KB object code size  0.5/0.4/[0.2]
Matrix Compiler2: 2.55 KB object code size  0.3/0.4/[0.3]

